testcases/gridlabd/pegase_1951rte_T/case1951rte.glm

object load {
	name bus1;
	phases ABC;
	nominal_voltage 129.904 kV;
	bustype PQ;
	voltage_A 135.3032-18.7605d kV;
	voltage_B 135.3032-138.7605d kV;
	voltage_C 135.3032+101.2395d kV;
	constant_power_A 12.1333+6.5000j MVA;
	constant_power_B 12.1333+6.5000j MVA;
	constant_power_C 12.1333+6.5000j MVA;
}
object node {
	name bus2;
	phases ABC;
	nominal_voltage 219.393 kV;
	bustype PQ;
	voltage_A 237.1788-5.1837d kV;
	voltage_B 237.1788-125.1837d kV;
	voltage_C 237.1788+114.8163d kV;
}
object load {
	name bus3;
	phases ABC;
	nominal_voltage 129.904 kV;
	bustype PQ;
	voltage_A 138.4301-23.6251d kV;
	voltage_B 138.4301-143.6251d kV;
	voltage_C 138.4301+96.3749d kV;
	constant_power_A 81.7333+5.4667j MVA;
	constant_power_B 81.7333+5.4667j MVA;
	constant_power_C 81.7333+5.4667j MVA;
}
object node {
	name bus4;
	phases ABC;
	nominal_voltage 86.603 kV;
	bustype PQ;
	voltage_A 93.1111-8.3785d kV;
	voltage_B 93.1111-128.3785d kV;
	voltage_C 93.1111+111.6215d kV;
}
object load {
	name bus5;
	phases ABC;
	nominal_voltage 129.904 kV;
	bustype PQ;
	voltage_A 139.0055-11.7090d kV;
	voltage_B 139.0055-131.7090d kV;
	voltage_C 139.0055+108.2910d kV;
	constant_power_A 17.2667+4.5000j MVA;
	constant_power_B 17.2667+4.5000j MVA;
	constant_power_C 17.2667+4.5000j MVA;
}
object load {
	name bus6;
	phases ABC;
	nominal_voltage 129.904 kV;
	bustype PQ;
	voltage_A 138.6875-12.7556d kV;
	voltage_B 138.6875-132.7556d kV;
	voltage_C 138.6875+107.2444d kV;
	constant_power_A 12.2000+3.8667j MVA;
	constant_power_B 12.2000+3.8667j MVA;
	constant_power_C 12.2000+3.8667j MVA;
}
object node {
	name bus7;
	phases ABC;
	nominal_voltage 219.393 kV;
	bustype PQ;
	voltage_A 238.0374-10.6561d kV;
	voltage_B 238.0374-130.6561d kV;
	voltage_C 238.0374+109.3439d kV;
}
object node {
	name bus8;
	phases ABC;
	nominal_voltage 219.393 kV;
	bustype PQ;
	voltage_A 237.0206-12.0089d kV;
	voltage_B 237.0206-132.0089d kV;
	voltage_C 237.0206+107.9911d kV;
}
object node {
	name bus9;
	phases ABC;
	nominal_voltage 129.904 kV;
	bustype PQ;
	voltage_A 139.9264-28.5405d kV;
	voltage_B 139.9264-148.5405d kV;
	voltage_C 139.9264+91.4595d kV;
}
object load {
	name bus10;
	phases ABC;
	nominal_voltage 129.904 kV;
	bustype PQ;
	voltage_A 134.5501-15.9359d kV;
	voltage_B 134.5501-135.9359d kV;
	voltage_C 134.5501+104.0641d kV;
	constant_power_A 64.4667+16.3000j MVA;
	constant_power_B 64.4667+16.3000j MVA;
	constant_power_C 64.4667+16.3000j MVA;
}
object load {
	name bus11;
	phases ABC;
	nominal_voltage 129.904 kV;
	bustype PQ;
	voltage_A 138.0656-29.5314d kV;
	voltage_B 138.0656-149.5314d kV;
	voltage_C 138.0656+90.4686d kV;
	constant_power_A 19.2333+4.8667j MVA;
	constant_power_B 19.2333+4.8667j MVA;
	constant_power_C 19.2333+4.8667j MVA;
}
object load {
	name bus12;
	phases ABC;
	nominal_voltage 129.904 kV;
	bustype PQ;
	voltage_A 139.7581-25.1251d kV;
	voltage_B 139.7581-145.1251d kV;
	voltage_C 139.7581+94.8749d kV;
	constant_power_A 9.2667+8.1333j MVA;
	constant_power_B 9.2667+8.1333j MVA;
	constant_power_C 9.2667+8.1333j MVA;
}
object load {
	name bus13;
	phases ABC;
	nominal_voltage 129.904 kV;
	bustype PQ;
	voltage_A 138.0379-29.5333d kV;
	voltage_B 138.0379-149.5333d kV;
	voltage_C 138.0379+90.4667d kV;
	constant_power_A 59.1667+17.5000j MVA;
	constant_power_B 59.1667+17.5000j MVA;
	constant_power_C 59.1667+17.5000j MVA;
}
object load {
	name bus14;
	phases ABC;
	nominal_voltage 129.904 kV;
	bustype PQ;
	voltage_A 137.4958-15.7274d kV;
	voltage_B 137.4958-135.7274d kV;
	voltage_C 137.4958+104.2726d kV;
	constant_power_A 25.2667+2.4333j MVA;
	constant_power_B 25.2667+2.4333j MVA;
	constant_power_C 25.2667+2.4333j MVA;
}
object node {
	name bus15;
	phases ABC;
	nominal_voltage 129.904 kV;
	bustype PQ;
	voltage_A 141.3236-14.1191d kV;
	voltage_B 141.3236-134.1191d kV;
	voltage_C 141.3236+105.8809d kV;
}
object node {
	name bus16;
	phases ABC;
	nominal_voltage 129.904 kV;
	bustype PQ;
	voltage_A 141.3237-14.1191d kV;
	voltage_B 141.3237-134.1191d kV;
	voltage_C 141.3237+105.8809d kV;
}
object load {
	name bus17;
	phases ABC;
	nominal_voltage 129.904 kV;
	bustype PQ;
	voltage_A 137.5809-15.6002d kV;
	voltage_B 137.5809-135.6002d kV;
	voltage_C 137.5809+104.3998d kV;
	constant_power_A 22.0667+0.3000j MVA;
	constant_power_B 22.0667+0.3000j MVA;
	constant_power_C 22.0667+0.3000j MVA;
}
object load {
	name bus18;
	phases ABC;
	nominal_voltage 129.904 kV;
	bustype PQ;
	voltage_A 139.3488-3.3299d kV;
	voltage_B 139.3488-123.3299d kV;
	voltage_C 139.3488+116.6701d kV;
	constant_power_A 4.1000+2.3667j MVA;
	constant_power_B 4.1000+2.3667j MVA;
	constant_power_C 4.1000+2.3667j MVA;
}
object load {
	name bus19;
	phases ABC;
	nominal_voltage 129.904 kV;
	bustype PQ;
	voltage_A 136.0229-26.5178d kV;
	voltage_B 136.0229-146.5178d kV;
	voltage_C 136.0229+93.4822d kV;
	constant_power_A 22.6333+7.6667j MVA;
	constant_power_B 22.6333+7.6667j MVA;
	constant_power_C 22.6333+7.6667j MVA;
}
object load {
	name bus20;
	phases ABC;
	nominal_voltage 129.904 kV;
	bustype PQ;
	voltage_A 136.0314-26.5150d kV;
	voltage_B 136.0314-146.5150d kV;
	voltage_C 136.0314+93.4850d kV;
	constant_power_A 9.7333+2.4000j MVA;
	constant_power_B 9.7333+2.4000j MVA;
	constant_power_C 9.7333+2.4000j MVA;
}
object load {
	name bus21;
	phases ABC;
	nominal_voltage 129.904 kV;
	bustype PQ;
	voltage_A 137.7922-26.4665d kV;
	voltage_B 137.7922-146.4665d kV;
	voltage_C 137.7922+93.5335d kV;
	constant_power_A 25.9333+10.4000j MVA;
	constant_power_B 25.9333+10.4000j MVA;
	constant_power_C 25.9333+10.4000j MVA;
}
object load {
	name bus22;
	phases ABC;
	nominal_voltage 129.904 kV;
	bustype PQ;
	voltage_A 135.9312-11.4422d kV;
	voltage_B 135.9312-131.4422d kV;
	voltage_C 135.9312+108.5578d kV;
	constant_power_A 35.2000+7.6000j MVA;
	constant_power_B 35.2000+7.6000j MVA;
	constant_power_C 35.2000+7.6000j MVA;
}
object load {
	name bus23;
	phases ABC;
	nominal_voltage 129.904 kV;
	bustype PQ;
	voltage_A 135.8469-15.6103d kV;
	voltage_B 135.8469-135.6103d kV;
	voltage_C 135.8469+104.3897d kV;
	constant_power_A 13.7000+0.9000j MVA;
	constant_power_B 13.7000+0.9000j MVA;
	constant_power_C 13.7000+0.9000j MVA;
}
object load {
	name bus25;
	phases ABC;
	nominal_voltage 129.904 kV;
	bustype PQ;
	voltage_A 137.4797-29.2377d kV;
	voltage_B 137.4797-149.2377d kV;
	voltage_C 137.4797+90.7623d kV;
	constant_power_A 18.7333+2.7000j MVA;
	constant_power_B 18.7333+2.7000j MVA;
	constant_power_C 18.7333+2.7000j MVA;
}
object load {
	name bus26;
	phases ABC;
	nominal_voltage 129.904 kV;
	bustype PQ;
	voltage_A 137.5232-29.1900d kV;
	voltage_B 137.5232-149.1900d kV;
	voltage_C 137.5232+90.8100d kV;
	constant_power_A 9.7667+2.1333j MVA;
	constant_power_B 9.7667+2.1333j MVA;
	constant_power_C 9.7667+2.1333j MVA;
}
object load {
	name bus27;
	phases ABC;
	nominal_voltage 129.904 kV;
	bustype PQ;
	voltage_A 136.3566-14.6526d kV;
	voltage_B 136.3566-134.6526d kV;
	voltage_C 136.3566+105.3474d kV;
	constant_power_A 34.0333+12.6667j MVA;
	constant_power_B 34.0333+12.6667j MVA;
	constant_power_C 34.0333+12.6667j MVA;
}
object load {
	name bus28;
	phases ABC;
	nominal_voltage 129.904 kV;
	bustype PQ;
	voltage_A 138.4381-25.8735d kV;
	voltage_B 138.4381-145.8735d kV;
	voltage_C 138.4381+94.1265d kV;
	constant_power_A 57.3667+13.3333j MVA;
	constant_power_B 57.3667+13.3333j MVA;
	constant_power_C 57.3667+13.3333j MVA;
}
object node {
	name bus29;
	phases ABC;
	nominal_voltage 219.393 kV;
	bustype PQ;
	voltage_A 237.1973-5.1719d kV;
	voltage_B 237.1973-125.1719d kV;
	voltage_C 237.1973+114.8281d kV;
}
object node {
	name bus30;
	phases ABC;
	nominal_voltage 219.393 kV;
	bustype PQ;
	voltage_A 237.2067-5.1760d kV;
	voltage_B 237.2067-125.1760d kV;
	voltage_C 237.2067+114.8240d kV;
}
object load {
	name bus31;
	phases ABC;
	nominal_voltage 129.904 kV;
	bustype PQ;
	voltage_A 138.1745-10.0262d kV;
	voltage_B 138.1745-130.0262d kV;
	voltage_C 138.1745+109.9738d kV;
	constant_power_A 12.0667+10.5667j MVA;
	constant_power_B 12.0667+10.5667j MVA;
	constant_power_C 12.0667+10.5667j MVA;
}
object load {
	name bus33;
	phases ABC;
	nominal_voltage 129.904 kV;
	bustype PQ;
	voltage_A 138.5013-17.6807d kV;
	voltage_B 138.5013-137.6807d kV;
	voltage_C 138.5013+102.3193d kV;
	constant_power_A 44.4000+6.7000j MVA;
	constant_power_B 44.4000+6.7000j MVA;
	constant_power_C 44.4000+6.7000j MVA;
}
object load {
	name bus34;
	phases ABC;
	nominal_voltage 129.904 kV;
	bustype PQ;
	voltage_A 133.0789-27.4213d kV;
	voltage_B 133.0789-147.4213d kV;
	voltage_C 133.0789+92.5787d kV;
	constant_power_A 29.8000+9.8667j MVA;
	constant_power_B 29.8000+9.8667j MVA;
	constant_power_C 29.8000+9.8667j MVA;
}
object node {
	name bus2013;
	phases ABC;
	nominal_voltage 129.904 kV;
	bustype PQ;
	voltage_A 138.2217-29.3493d kV;
	voltage_B 138.2217-149.3493d kV;
	voltage_C 138.2217+90.6507d kV;
}
object load {
	name bus35;
	phases ABC;
	nominal_voltage 86.603 kV;
	bustype PQ;
	voltage_A 92.3275-14.1520d kV;
	voltage_B 92.3275-134.1520d kV;
	voltage_C 92.3275+105.8480d kV;
	constant_power_A 3.4333-0.1333j MVA;
	constant_power_B 3.4333-0.1333j MVA;
	constant_power_C 3.4333-0.1333j MVA;
}
object load {
	name bus36;
	phases ABC;
	nominal_voltage 129.904 kV;
	bustype PQ;
	voltage_A 135.4868-21.0627d kV;
	voltage_B 135.4868-141.0627d kV;
	voltage_C 135.4868+98.9373d kV;
	constant_power_A 7.4333+2.2333j MVA;
	constant_power_B 7.4333+2.2333j MVA;
	constant_power_C 7.4333+2.2333j MVA;
	constant_impedance_A 0.0000-632.8125j Ohm;
	constant_impedance_B 0.0000-632.8125j Ohm;
	constant_impedance_C 0.0000-632.8125j Ohm;
}
object node {
	name bus37;
	phases ABC;
	nominal_voltage 219.393 kV;
	bustype PQ;
	voltage_A 230.6681-17.7698d kV;
	voltage_B 230.6681-137.7698d kV;
	voltage_C 230.6681+102.2302d kV;
}
object load {
	name bus38;
	phases ABC;
	nominal_voltage 129.904 kV;
	bustype PQ;
	voltage_A 131.7065-15.7528d kV;
	voltage_B 131.7065-135.7528d kV;
	voltage_C 131.7065+104.2472d kV;
	constant_power_A 48.0667+6.3000j MVA;
	constant_power_B 48.0667+6.3000j MVA;
	constant_power_C 48.0667+6.3000j MVA;
}
object load {
	name bus39;
	phases ABC;
	nominal_voltage 129.904 kV;
	bustype PQ;
	voltage_A 137.7230-15.3962d kV;
	voltage_B 137.7230-135.3962d kV;
	voltage_C 137.7230+104.6038d kV;
	constant_power_A 39.2667+10.5000j MVA;
	constant_power_B 39.2667+10.5000j MVA;
	constant_power_C 39.2667+10.5000j MVA;
}
object load {
	name bus40;
	phases ABC;
	nominal_voltage 219.393 kV;
	bustype PQ;
	voltage_A 236.2812-12.2197d kV;
	voltage_B 236.2812-132.2197d kV;
	voltage_C 236.2812+107.7803d kV;
	constant_power_A 64.9333+17.8667j MVA;
	constant_power_B 64.9333+17.8667j MVA;
	constant_power_C 64.9333+17.8667j MVA;
}
object load {
	name bus41;
	phases ABC;
	nominal_voltage 129.904 kV;
	bustype PQ;
	voltage_A 136.6304-14.0985d kV;
	voltage_B 136.6304-134.0985d kV;
	voltage_C 136.6304+105.9015d kV;
	constant_power_A 21.5667+4.2000j MVA;
	constant_power_B 21.5667+4.2000j MVA;
	constant_power_C 21.5667+4.2000j MVA;
}
object load {
	name bus42;
	phases ABC;
	nominal_voltage 129.904 kV;
	bustype PQ;
	voltage_A 137.2185-13.9328d kV;
	voltage_B 137.2185-133.9328d kV;
	voltage_C 137.2185+106.0672d kV;
	constant_power_A 14.8667+5.2000j MVA;
	constant_power_B 14.8667+5.2000j MVA;
	constant_power_C 14.8667+5.2000j MVA;
}
object load {
	name bus43;
	phases ABC;
	nominal_voltage 129.904 kV;
	bustype PQ;
	voltage_A 137.2383-13.9382d kV;
	voltage_B 137.2383-133.9382d kV;
	voltage_C 137.2383+106.0618d kV;
	constant_power_A 15.6333+3.9000j MVA;
	constant_power_B 15.6333+3.9000j MVA;
	constant_power_C 15.6333+3.9000j MVA;
}
object load {
	name bus44;
	phases ABC;
	nominal_voltage 129.904 kV;
	bustype PQ;
	voltage_A 138.8827-32.0998d kV;
	voltage_B 138.8827-152.0998d kV;
	voltage_C 138.8827+87.9002d kV;
	constant_power_A 127.1000+20.8333j MVA;
	constant_power_B 127.1000+20.8333j MVA;
	constant_power_C 127.1000+20.8333j MVA;
}
object load {
	name bus45;
	phases ABC;
	nominal_voltage 129.904 kV;
	bustype PQ;
	voltage_A 138.4963-28.5768d kV;
	voltage_B 138.4963-148.5768d kV;
	voltage_C 138.4963+91.4232d kV;
	constant_power_A 53.8333-12.8333j MVA;
	constant_power_B 53.8333-12.8333j MVA;
	constant_power_C 53.8333-12.8333j MVA;
}
object node {
	name bus46;
	phases ABC;
	nominal_voltage 86.603 kV;
	bustype PQ;
	voltage_A 95.8690-18.0721d kV;
	voltage_B 95.8690-138.0721d kV;
	voltage_C 95.8690+101.9279d kV;
}
object node {
	name bus47;
	phases ABC;
	nominal_voltage 129.904 kV;
	bustype PQ;
	voltage_A 136.8598-26.6613d kV;
	voltage_B 136.8598-146.6613d kV;
	voltage_C 136.8598+93.3387d kV;
}
object node {
	name bus48;
	phases ABC;
	nominal_voltage 129.904 kV;
	bustype PQ;
	voltage_A 136.8598-26.6613d kV;
	voltage_B 136.8598-146.6613d kV;
	voltage_C 136.8598+93.3387d kV;
}
object load {
	name bus49;
	phases ABC;
	nominal_voltage 129.904 kV;
	bustype PQ;
	voltage_A 136.8596-26.6613d kV;
	voltage_B 136.8596-146.6613d kV;
	voltage_C 136.8596+93.3387d kV;
	constant_power_A 41.1667+14.4667j MVA;
	constant_power_B 41.1667+14.4667j MVA;
	constant_power_C 41.1667+14.4667j MVA;
}
object load {
	name bus50;
	phases ABC;
	nominal_voltage 129.904 kV;
	bustype PQ;
	voltage_A 138.4493-26.4435d kV;
	voltage_B 138.4493-146.4435d kV;
	voltage_C 138.4493+93.5565d kV;
	constant_power_A 3.3333+1.2333j MVA;
	constant_power_B 3.3333+1.2333j MVA;
	constant_power_C 3.3333+1.2333j MVA;
}
object node {
	name bus51;
	phases ABC;
	nominal_voltage 129.904 kV;
	bustype PQ;
	voltage_A 137.3684-20.4854d kV;
	voltage_B 137.3684-140.4854d kV;
	voltage_C 137.3684+99.5146d kV;
}
object load {
	name bus52;
	phases ABC;
	nominal_voltage 129.904 kV;
	bustype PQ;
	voltage_A 135.2758-16.3223d kV;
	voltage_B 135.2758-136.3223d kV;
	voltage_C 135.2758+103.6777d kV;
	constant_power_A 24.8667+9.3333j MVA;
	constant_power_B 24.8667+9.3333j MVA;
	constant_power_C 24.8667+9.3333j MVA;
}
object load {
	name bus53;
	phases ABC;
	nominal_voltage 129.904 kV;
	bustype PQ;
	voltage_A 138.9622-8.5014d kV;
	voltage_B 138.9622-128.5014d kV;
	voltage_C 138.9622+111.4986d kV;
	constant_power_A 53.4000+12.7333j MVA;
	constant_power_B 53.4000+12.7333j MVA;
	constant_power_C 53.4000+12.7333j MVA;
}
object node {
	name bus54;
	phases ABC;
	nominal_voltage 219.393 kV;
	bustype PQ;
	voltage_A 238.8980-4.6423d kV;
	voltage_B 238.8980-124.6423d kV;
	voltage_C 238.8980+115.3577d kV;
}
object load {
	name bus55;
	phases ABC;
	nominal_voltage 129.904 kV;
	bustype PQ;
	voltage_A 138.2276-16.1232d kV;
	voltage_B 138.2276-136.1232d kV;
	voltage_C 138.2276+103.8768d kV;
	constant_power_A 10.3333+3.6667j MVA;
	constant_power_B 10.3333+3.6667j MVA;
	constant_power_C 10.3333+3.6667j MVA;
}
object load {
	name bus56;
	phases ABC;
	nominal_voltage 129.904 kV;
	bustype PQ;
	voltage_A 138.2704-16.1076d kV;
	voltage_B 138.2704-136.1076d kV;
	voltage_C 138.2704+103.8924d kV;
	constant_power_A 4.9000-0.3333j MVA;
	constant_power_B 4.9000-0.3333j MVA;
	constant_power_C 4.9000-0.3333j MVA;
}
object load {
	name bus1827;
	phases ABC;
	nominal_voltage 129.904 kV;
	bustype PQ;
	voltage_A 137.0277-31.0020d kV;
	voltage_B 137.0277-151.0020d kV;
	voltage_C 137.0277+88.9980d kV;
	constant_power_A 67.0667+3.9000j MVA;
	constant_power_B 67.0667+3.9000j MVA;
	constant_power_C 67.0667+3.9000j MVA;
}
object load {
	name bus57;
	phases ABC;
	nominal_voltage 129.904 kV;
	bustype PQ;
	voltage_A 140.3814-17.7415d kV;
	voltage_B 140.3814-137.7415d kV;
	voltage_C 140.3814+102.2585d kV;
	constant_power_A 19.0000+1.0000j MVA;
	constant_power_B 19.0000+1.0000j MVA;
	constant_power_C 19.0000+1.0000j MVA;
}
object node {
	name bus58;
	phases ABC;
	nominal_voltage 86.603 kV;
	bustype PQ;
	voltage_A 95.8690-18.1931d kV;
	voltage_B 95.8690-138.1931d kV;
	voltage_C 95.8690+101.8069d kV;
}
object load {
	name bus59;
	phases ABC;
	nominal_voltage 129.904 kV;
	bustype PQ;
	voltage_A 139.9855-15.8021d kV;
	voltage_B 139.9855-135.8021d kV;
	voltage_C 139.9855+104.1979d kV;
	constant_power_A 18.4667+6.5667j MVA;
	constant_power_B 18.4667+6.5667j MVA;
	constant_power_C 18.4667+6.5667j MVA;
}
object load {
	name bus60;
	phases ABC;
	nominal_voltage 129.904 kV;
	bustype PQ;
	voltage_A 139.9410-15.7990d kV;
	voltage_B 139.9410-135.7990d kV;
	voltage_C 139.9410+104.2010d kV;
	constant_power_A 18.5667+13.8667j MVA;
	constant_power_B 18.5667+13.8667j MVA;
	constant_power_C 18.5667+13.8667j MVA;
}
object node {
	name bus61;
	phases ABC;
	nominal_voltage 129.904 kV;
	bustype PQ;
	voltage_A 139.6171-16.0338d kV;
	voltage_B 139.6171-136.0338d kV;
	voltage_C 139.6171+103.9662d kV;
}
object load {
	name bus62;
	phases ABC;
	nominal_voltage 129.904 kV;
	bustype PQ;
	voltage_A 137.3083-13.1682d kV;
	voltage_B 137.3083-133.1682d kV;
	voltage_C 137.3083+106.8318d kV;
	constant_power_A 5.4667+1.6333j MVA;
	constant_power_B 5.4667+1.6333j MVA;
	constant_power_C 5.4667+1.6333j MVA;
}
object load {
	name bus63;
	phases ABC;
	nominal_voltage 129.904 kV;
	bustype PQ;
	voltage_A 140.0749-12.6396d kV;
	voltage_B 140.0749-132.6396d kV;
	voltage_C 140.0749+107.3604d kV;
	constant_power_A 0.5333+4.2333j MVA;
	constant_power_B 0.5333+4.2333j MVA;
	constant_power_C 0.5333+4.2333j MVA;
}
object load {
	name bus64;
	phases ABC;
	nominal_voltage 129.904 kV;
	bustype PQ;
	voltage_A 139.5715-25.4217d kV;
	voltage_B 139.5715-145.4217d kV;
	voltage_C 139.5715+94.5783d kV;
	constant_power_A 9.9000+4.0000j MVA;
	constant_power_B 9.9000+4.0000j MVA;
	constant_power_C 9.9000+4.0000j MVA;
}
object load {
	name bus65;
	phases ABC;
	nominal_voltage 129.904 kV;
	bustype PQ;
	voltage_A 139.8492-28.6288d kV;
	voltage_B 139.8492-148.6288d kV;
	voltage_C 139.8492+91.3712d kV;
	constant_power_A 18.2333+4.5333j MVA;
	constant_power_B 18.2333+4.5333j MVA;
	constant_power_C 18.2333+4.5333j MVA;
}
object load {
	name bus66;
	phases ABC;
	nominal_voltage 129.904 kV;
	bustype PQ;
	voltage_A 137.4885-20.6923d kV;
	voltage_B 137.4885-140.6923d kV;
	voltage_C 137.4885+99.3077d kV;
	constant_power_A -7.3000-1.7000j MVA;
	constant_power_B -7.3000-1.7000j MVA;
	constant_power_C -7.3000-1.7000j MVA;
}
object load {
	name bus67;
	phases ABC;
	nominal_voltage 129.904 kV;
	bustype PQ;
	voltage_A 139.7668-19.7532d kV;
	voltage_B 139.7668-139.7532d kV;
	voltage_C 139.7668+100.2468d kV;
	constant_power_A 9.7333-0.8333j MVA;
	constant_power_B 9.7333-0.8333j MVA;
	constant_power_C 9.7333-0.8333j MVA;
}
object load {
	name bus68;
	phases ABC;
	nominal_voltage 129.904 kV;
	bustype PQ;
	voltage_A 138.2780-13.7025d kV;
	voltage_B 138.2780-133.7025d kV;
	voltage_C 138.2780+106.2975d kV;
	constant_impedance_A 0.0000-632.8125j Ohm;
	constant_impedance_B 0.0000-632.8125j Ohm;
	constant_impedance_C 0.0000-632.8125j Ohm;
}
object node {
	name bus69;
	phases ABC;
	nominal_voltage 129.904 kV;
	bustype PQ;
	voltage_A 136.2924-15.1066d kV;
	voltage_B 136.2924-135.1066d kV;
	voltage_C 136.2924+104.8934d kV;
}
object node {
	name bus70;
	phases ABC;
	nominal_voltage 219.393 kV;
	bustype PQ;
	voltage_A 235.4805-10.1038d kV;
	voltage_B 235.4805-130.1038d kV;
	voltage_C 235.4805+109.8962d kV;
}
object load {
	name bus71;
	phases ABC;
	nominal_voltage 129.904 kV;
	bustype PQ;
	voltage_A 135.9337-26.7134d kV;
	voltage_B 135.9337-146.7134d kV;
	voltage_C 135.9337+93.2866d kV;
	constant_power_A 25.4333+4.7667j MVA;
	constant_power_B 25.4333+4.7667j MVA;
	constant_power_C 25.4333+4.7667j MVA;
}
object load {
	name bus72;
	phases ABC;
	nominal_voltage 129.904 kV;
	bustype PQ;
	voltage_A 138.6132-25.5768d kV;
	voltage_B 138.6132-145.5768d kV;
	voltage_C 138.6132+94.4232d kV;
	constant_power_A 9.6667+1.6667j MVA;
	constant_power_B 9.6667+1.6667j MVA;
	constant_power_C 9.6667+1.6667j MVA;
}
object node {
	name bus73;
	phases ABC;
	nominal_voltage 129.904 kV;
	bustype PQ;
	voltage_A 137.0681-11.3557d kV;
	voltage_B 137.0681-131.3557d kV;
	voltage_C 137.0681+108.6443d kV;
}
object node {
	name bus74;
	phases ABC;
	nominal_voltage 129.904 kV;
	bustype PQ;
	voltage_A 137.0694-11.3550d kV;
	voltage_B 137.0694-131.3550d kV;
	voltage_C 137.0694+108.6450d kV;
}
object load {
	name bus75;
	phases ABC;
	nominal_voltage 129.904 kV;
	bustype PQ;
	voltage_A 136.7054-12.1906d kV;
	voltage_B 136.7054-132.1906d kV;
	voltage_C 136.7054+107.8094d kV;
	constant_power_A 60.8000+10.4000j MVA;
	constant_power_B 60.8000+10.4000j MVA;
	constant_power_C 60.8000+10.4000j MVA;
}
object node {
	name bus76;
	phases ABC;
	nominal_voltage 129.904 kV;
	bustype PQ;
	voltage_A 140.0477-27.9048d kV;
	voltage_B 140.0477-147.9048d kV;
	voltage_C 140.0477+92.0952d kV;
}
object node {
	name bus77;
	phases ABC;
	nominal_voltage 219.393 kV;
	bustype PQ;
	voltage_A 240.6414-21.8574d kV;
	voltage_B 240.6414-141.8574d kV;
	voltage_C 240.6414+98.1426d kV;
}
object load {
	name bus78;
	phases ABC;
	nominal_voltage 129.904 kV;
	bustype PQ;
	voltage_A 140.0034-27.9643d kV;
	voltage_B 140.0034-147.9643d kV;
	voltage_C 140.0034+92.0357d kV;
	constant_power_A 38.7000+5.8667j MVA;
	constant_power_B 38.7000+5.8667j MVA;
	constant_power_C 38.7000+5.8667j MVA;
}
object load {
	name bus79;
	phases ABC;
	nominal_voltage 129.904 kV;
	bustype PQ;
	voltage_A 139.8895-24.9583d kV;
	voltage_B 139.8895-144.9583d kV;
	voltage_C 139.8895+95.0417d kV;
	constant_power_A -2.4667+0.3000j MVA;
	constant_power_B -2.4667+0.3000j MVA;
	constant_power_C -2.4667+0.3000j MVA;
}
object load {
	name bus80;
	phases ABC;
	nominal_voltage 129.904 kV;
	bustype PQ;
	voltage_A 139.8722-24.9686d kV;
	voltage_B 139.8722-144.9686d kV;
	voltage_C 139.8722+95.0314d kV;
	constant_power_A 4.6667+4.2000j MVA;
	constant_power_B 4.6667+4.2000j MVA;
	constant_power_C 4.6667+4.2000j MVA;
}
object load {
	name bus81;
	phases ABC;
	nominal_voltage 129.904 kV;
	bustype PQ;
	voltage_A 140.5413-5.9172d kV;
	voltage_B 140.5413-125.9172d kV;
	voltage_C 140.5413+114.0828d kV;
	constant_power_A 16.2333+0.9667j MVA;
	constant_power_B 16.2333+0.9667j MVA;
	constant_power_C 16.2333+0.9667j MVA;
}
object load {
	name bus82;
	phases ABC;
	nominal_voltage 129.904 kV;
	bustype PQ;
	voltage_A 136.3282-16.2033d kV;
	voltage_B 136.3282-136.2033d kV;
	voltage_C 136.3282+103.7967d kV;
	constant_power_A 9.3000+1.1000j MVA;
	constant_power_B 9.3000+1.1000j MVA;
	constant_power_C 9.3000+1.1000j MVA;
}
object load {
	name bus83;
	phases ABC;
	nominal_voltage 129.904 kV;
	bustype PQ;
	voltage_A 139.2073-7.2464d kV;
	voltage_B 139.2073-127.2464d kV;
	voltage_C 139.2073+112.7536d kV;
	constant_power_A 20.6333+6.5667j MVA;
	constant_power_B 20.6333+6.5667j MVA;
	constant_power_C 20.6333+6.5667j MVA;
}
object load {
	name bus84;
	phases ABC;
	nominal_voltage 129.904 kV;
	bustype PQ;
	voltage_A 134.4419-22.1996d kV;
	voltage_B 134.4419-142.1996d kV;
	voltage_C 134.4419+97.8004d kV;
	constant_power_A 52.7000-5.5000j MVA;
	constant_power_B 52.7000-5.5000j MVA;
	constant_power_C 52.7000-5.5000j MVA;
}
object node {
	name bus85;
	phases ABC;
	nominal_voltage 129.904 kV;
	bustype PQ;
	voltage_A 133.2222-16.8542d kV;
	voltage_B 133.2222-136.8542d kV;
	voltage_C 133.2222+103.1458d kV;
}
object load {
	name bus86;
	phases ABC;
	nominal_voltage 219.393 kV;
	bustype PQ;
	voltage_A 233.3285-16.7985d kV;
	voltage_B 233.3285-136.7985d kV;
	voltage_C 233.3285+103.2015d kV;
	constant_power_A 134.5667+41.6000j MVA;
	constant_power_B 134.5667+41.6000j MVA;
	constant_power_C 134.5667+41.6000j MVA;
}
object load {
	name bus87;
	phases ABC;
	nominal_voltage 129.904 kV;
	bustype PQ;
	voltage_A 134.7176-17.2941d kV;
	voltage_B 134.7176-137.2941d kV;
	voltage_C 134.7176+102.7059d kV;
	constant_power_A 36.2000+14.8000j MVA;
	constant_power_B 36.2000+14.8000j MVA;
	constant_power_C 36.2000+14.8000j MVA;
}
object load {
	name bus88;
	phases ABC;
	nominal_voltage 129.904 kV;
	bustype PQ;
	voltage_A 137.1114-20.9611d kV;
	voltage_B 137.1114-140.9611d kV;
	voltage_C 137.1114+99.0389d kV;
	constant_power_A 46.9000+12.2667j MVA;
	constant_power_B 46.9000+12.2667j MVA;
	constant_power_C 46.9000+12.2667j MVA;
}
object node {
	name bus89;
	phases ABC;
	nominal_voltage 86.603 kV;
	bustype PQ;
	voltage_A 90.2398-21.4174d kV;
	voltage_B 90.2398-141.4174d kV;
	voltage_C 90.2398+98.5826d kV;
}
object load {
	name bus90;
	phases ABC;
	nominal_voltage 129.904 kV;
	bustype PQ;
	voltage_A 133.6317-17.4501d kV;
	voltage_B 133.6317-137.4501d kV;
	voltage_C 133.6317+102.5499d kV;
	constant_power_A 18.8667+7.7333j MVA;
	constant_power_B 18.8667+7.7333j MVA;
	constant_power_C 18.8667+7.7333j MVA;
}
object load {
	name bus91;
	phases ABC;
	nominal_voltage 129.904 kV;
	bustype PQ;
	voltage_A 137.8416-10.0111d kV;
	voltage_B 137.8416-130.0111d kV;
	voltage_C 137.8416+109.9889d kV;
	constant_power_A 4.1667+2.0333j MVA;
	constant_power_B 4.1667+2.0333j MVA;
	constant_power_C 4.1667+2.0333j MVA;
}
object node {
	name bus92;
	phases ABC;
	nominal_voltage 219.393 kV;
	bustype PQ;
	voltage_A 240.5166-10.2753d kV;
	voltage_B 240.5166-130.2753d kV;
	voltage_C 240.5166+109.7247d kV;
}
object node {
	name bus93;
	phases ABC;
	nominal_voltage 219.393 kV;
	bustype PQ;
	voltage_A 240.5133-10.3409d kV;
	voltage_B 240.5133-130.3409d kV;
	voltage_C 240.5133+109.6591d kV;
}
object load {
	name bus96;
	phases ABC;
	nominal_voltage 129.904 kV;
	bustype PQ;
	voltage_A 134.9699-21.2493d kV;
	voltage_B 134.9699-141.2493d kV;
	voltage_C 134.9699+98.7507d kV;
	constant_power_A 4.2333+0.2000j MVA;
	constant_power_B 4.2333+0.2000j MVA;
	constant_power_C 4.2333+0.2000j MVA;
}
object load {
	name bus97;
	phases ABC;
	nominal_voltage 129.904 kV;
	bustype PQ;
	voltage_A 137.6559-26.3404d kV;
	voltage_B 137.6559-146.3404d kV;
	voltage_C 137.6559+93.6596d kV;
	constant_power_A 6.1000+3.7000j MVA;
	constant_power_B 6.1000+3.7000j MVA;
	constant_power_C 6.1000+3.7000j MVA;
}
object load {
	name bus98;
	phases ABC;
	nominal_voltage 86.603 kV;
	bustype PQ;
	voltage_A 94.3802-20.3391d kV;
	voltage_B 94.3802-140.3391d kV;
	voltage_C 94.3802+99.6609d kV;
	constant_power_A 30.2667+3.2000j MVA;
	constant_power_B 30.2667+3.2000j MVA;
	constant_power_C 30.2667+3.2000j MVA;
}
object load {
	name bus99;
	phases ABC;
	nominal_voltage 129.904 kV;
	bustype PQ;
	voltage_A 137.9305-19.5760d kV;
	voltage_B 137.9305-139.5760d kV;
	voltage_C 137.9305+100.4240d kV;
	constant_power_A 27.3667-0.8667j MVA;
	constant_power_B 27.3667-0.8667j MVA;
	constant_power_C 27.3667-0.8667j MVA;
}
object load {
	name bus100;
	phases ABC;
	nominal_voltage 129.904 kV;
	bustype PQ;
	voltage_A 136.0093-26.5626d kV;
	voltage_B 136.0093-146.5626d kV;
	voltage_C 136.0093+93.4374d kV;
	constant_power_A 0.4333+0.0000j MVA;
	constant_power_B 0.4333+0.0000j MVA;
	constant_power_C 0.4333+0.0000j MVA;
}
object node {
	name bus101;
	phases ABC;
	nominal_voltage 129.904 kV;
	bustype PQ;
	voltage_A 138.9923-11.6034d kV;
	voltage_B 138.9923-131.6034d kV;
	voltage_C 138.9923+108.3966d kV;
}
object node {
	name bus102;
	phases ABC;
	nominal_voltage 219.393 kV;
	bustype PQ;
	voltage_A 237.0658-11.9300d kV;
	voltage_B 237.0658-131.9300d kV;
	voltage_C 237.0658+108.0700d kV;
}
object node {
	name bus103;
	phases ABC;
	nominal_voltage 219.393 kV;
	bustype PQ;
	voltage_A 238.0603-10.5926d kV;
	voltage_B 238.0603-130.5926d kV;
	voltage_C 238.0603+109.4074d kV;
}
object node {
	name bus104;
	phases ABC;
	nominal_voltage 129.904 kV;
	bustype PQ;
	voltage_A 138.1123-29.5087d kV;
	voltage_B 138.1123-149.5087d kV;
	voltage_C 138.1123+90.4913d kV;
}
object load {
	name bus1828;
	phases ABC;
	nominal_voltage 129.904 kV;
	bustype PQ;
	voltage_A 132.8138-27.6979d kV;
	voltage_B 132.8138-147.6979d kV;
	voltage_C 132.8138+92.3021d kV;
	constant_power_A 28.9667+8.2000j MVA;
	constant_power_B 28.9667+8.2000j MVA;
	constant_power_C 28.9667+8.2000j MVA;
}
object node {
	name bus105;
	phases ABC;
	nominal_voltage 129.904 kV;
	bustype PQ;
	voltage_A 131.7875-8.3217d kV;
	voltage_B 131.7875-128.3217d kV;
	voltage_C 131.7875+111.6783d kV;
}
object load {
	name bus106;
	phases ABC;
	nominal_voltage 129.904 kV;
	bustype PQ;
	voltage_A 138.0919-29.5180d kV;
	voltage_B 138.0919-149.5180d kV;
	voltage_C 138.0919+90.4820d kV;
	constant_power_A 4.2667+2.5333j MVA;
	constant_power_B 4.2667+2.5333j MVA;
	constant_power_C 4.2667+2.5333j MVA;
}
object load {
	name bus107;
	phases ABC;
	nominal_voltage 129.904 kV;
	bustype PQ;
	voltage_A 137.3845-16.7313d kV;
	voltage_B 137.3845-136.7313d kV;
	voltage_C 137.3845+103.2687d kV;
	constant_power_A 50.0333+9.0333j MVA;
	constant_power_B 50.0333+9.0333j MVA;
	constant_power_C 50.0333+9.0333j MVA;
}
object node {
	name bus108;
	phases ABC;
	nominal_voltage 219.393 kV;
	bustype PQ;
	voltage_A 238.6366-13.0937d kV;
	voltage_B 238.6366-133.0937d kV;
	voltage_C 238.6366+106.9063d kV;
}
object load {
	name bus109;
	phases ABC;
	nominal_voltage 129.904 kV;
	bustype PQ;
	voltage_A 136.6867-19.4218d kV;
	voltage_B 136.6867-139.4218d kV;
	voltage_C 136.6867+100.5782d kV;
	constant_power_A 10.7000-0.5333j MVA;
	constant_power_B 10.7000-0.5333j MVA;
	constant_power_C 10.7000-0.5333j MVA;
}
object load {
	name bus110;
	phases ABC;
	nominal_voltage 129.904 kV;
	bustype PQ;
	voltage_A 138.2528-27.6470d kV;
	voltage_B 138.2528-147.6470d kV;
	voltage_C 138.2528+92.3530d kV;
	constant_power_A 9.8000+0.4000j MVA;
	constant_power_B 9.8000+0.4000j MVA;
	constant_power_C 9.8000+0.4000j MVA;
}
object load {
	name bus111;
	phases ABC;
	nominal_voltage 129.904 kV;
	bustype PQ;
	voltage_A 136.0918-21.4392d kV;
	voltage_B 136.0918-141.4392d kV;
	voltage_C 136.0918+98.5608d kV;
	constant_power_A 43.9667+0.9333j MVA;
	constant_power_B 43.9667+0.9333j MVA;
	constant_power_C 43.9667+0.9333j MVA;
}
object load {
	name bus112;
	phases ABC;
	nominal_voltage 129.904 kV;
	bustype PQ;
	voltage_A 136.1678-6.0989d kV;
	voltage_B 136.1678-126.0989d kV;
	voltage_C 136.1678+113.9011d kV;
	constant_power_A 58.3000+18.5333j MVA;
	constant_power_B 58.3000+18.5333j MVA;
	constant_power_C 58.3000+18.5333j MVA;
}
object load {
	name bus113;
	phases ABC;
	nominal_voltage 129.904 kV;
	bustype PQ;
	voltage_A 139.9298-28.5336d kV;
	voltage_B 139.9298-148.5336d kV;
	voltage_C 139.9298+91.4664d kV;
	constant_power_A 43.2000+11.0667j MVA;
	constant_power_B 43.2000+11.0667j MVA;
	constant_power_C 43.2000+11.0667j MVA;
}
object load {
	name bus114;
	phases ABC;
	nominal_voltage 129.904 kV;
	bustype PQ;
	voltage_A 134.0332-16.9927d kV;
	voltage_B 134.0332-136.9927d kV;
	voltage_C 134.0332+103.0073d kV;
	constant_power_A 81.8667+40.2000j MVA;
	constant_power_B 81.8667+40.2000j MVA;
	constant_power_C 81.8667+40.2000j MVA;
}
object load {
	name bus115;
	phases ABC;
	nominal_voltage 129.904 kV;
	bustype PQ;
	voltage_A 141.8956-2.0562d kV;
	voltage_B 141.8956-122.0562d kV;
	voltage_C 141.8956+117.9438d kV;
	constant_power_A 27.3667+4.9000j MVA;
	constant_power_B 27.3667+4.9000j MVA;
	constant_power_C 27.3667+4.9000j MVA;
}
object node {
	name bus117;
	phases ABC;
	nominal_voltage 219.393 kV;
	bustype PQ;
	voltage_A 239.9931-0.7362d kV;
	voltage_B 239.9931-120.7362d kV;
	voltage_C 239.9931+119.2638d kV;
}
object load {
	name bus119;
	phases ABC;
	nominal_voltage 129.904 kV;
	bustype PQ;
	voltage_A 137.7595-44.1201d kV;
	voltage_B 137.7595-164.1201d kV;
	voltage_C 137.7595+75.8799d kV;
	constant_power_A 64.0000-9.9333j MVA;
	constant_power_B 64.0000-9.9333j MVA;
	constant_power_C 64.0000-9.9333j MVA;
}
object load {
	name bus120;
	phases ABC;
	nominal_voltage 129.904 kV;
	bustype PQ;
	voltage_A 137.7761-27.8035d kV;
	voltage_B 137.7761-147.8035d kV;
	voltage_C 137.7761+92.1965d kV;
	constant_power_A 7.2000-5.6333j MVA;
	constant_power_B 7.2000-5.6333j MVA;
	constant_power_C 7.2000-5.6333j MVA;
}
object node {
	name bus121;
	phases ABC;
	nominal_voltage 219.393 kV;
	bustype PQ;
	voltage_A 231.4204-24.8317d kV;
	voltage_B 231.4204-144.8317d kV;
	voltage_C 231.4204+95.1683d kV;
}
object load {
	name bus122;
	phases ABC;
	nominal_voltage 129.904 kV;
	bustype PQ;
	voltage_A 137.4568-16.7378d kV;
	voltage_B 137.4568-136.7378d kV;
	voltage_C 137.4568+103.2622d kV;
	constant_power_A -0.0333-1.4000j MVA;
	constant_power_B -0.0333-1.4000j MVA;
	constant_power_C -0.0333-1.4000j MVA;
}
object load {
	name bus123;
	phases ABC;
	nominal_voltage 129.904 kV;
	bustype PQ;
	voltage_A 136.8019-14.5176d kV;
	voltage_B 136.8019-134.5176d kV;
	voltage_C 136.8019+105.4824d kV;
	constant_power_A 57.5333+12.4000j MVA;
	constant_power_B 57.5333+12.4000j MVA;
	constant_power_C 57.5333+12.4000j MVA;
}
object load {
	name bus124;
	phases ABC;
	nominal_voltage 36.373 kV;
	bustype PQ;
	voltage_A 35.8458-27.6806d kV;
	voltage_B 35.8458-147.6806d kV;
	voltage_C 35.8458+92.3194d kV;
	constant_power_A 10.6333+9.9333j MVA;
	constant_power_B 10.6333+9.9333j MVA;
	constant_power_C 10.6333+9.9333j MVA;
}
object node {
	name bus125;
	phases ABC;
	nominal_voltage 129.904 kV;
	bustype PQ;
	voltage_A 139.6466-11.1823d kV;
	voltage_B 139.6466-131.1823d kV;
	voltage_C 139.6466+108.8177d kV;
}
object load {
	name bus126;
	phases ABC;
	nominal_voltage 129.904 kV;
	bustype PQ;
	voltage_A 138.0285-12.6192d kV;
	voltage_B 138.0285-132.6192d kV;
	voltage_C 138.0285+107.3808d kV;
	constant_power_A 1.4667+1.7667j MVA;
	constant_power_B 1.4667+1.7667j MVA;
	constant_power_C 1.4667+1.7667j MVA;
}
object node {
	name bus127;
	phases ABC;
	nominal_voltage 219.393 kV;
	bustype PQ;
	voltage_A 232.9194-12.4481d kV;
	voltage_B 232.9194-132.4481d kV;
	voltage_C 232.9194+107.5519d kV;
}
object node {
	name bus128;
	phases ABC;
	nominal_voltage 219.393 kV;
	bustype PQ;
	voltage_A 232.9323-12.4450d kV;
	voltage_B 232.9323-132.4450d kV;
	voltage_C 232.9323+107.5550d kV;
}
object node {
	name bus129;
	phases ABC;
	nominal_voltage 219.393 kV;
	bustype PQ;
	voltage_A 232.9322-12.4414d kV;
	voltage_B 232.9322-132.4414d kV;
	voltage_C 232.9322+107.5586d kV;
}
object node {
	name bus130;
	phases ABC;
	nominal_voltage 219.393 kV;
	bustype PQ;
	voltage_A 232.9331-12.4569d kV;
	voltage_B 232.9331-132.4569d kV;
	voltage_C 232.9331+107.5431d kV;
}
object node {
	name bus131;
	phases ABC;
	nominal_voltage 129.904 kV;
	bustype PQ;
	voltage_A 141.9611-1.9383d kV;
	voltage_B 141.9611-121.9383d kV;
	voltage_C 141.9611+118.0617d kV;
}
object node {
	name bus132;
	phases ABC;
	nominal_voltage 129.904 kV;
	bustype PQ;
	voltage_A 142.0123-1.8941d kV;
	voltage_B 142.0123-121.8941d kV;
	voltage_C 142.0123+118.1059d kV;
}
object node {
	name bus133;
	phases ABC;
	nominal_voltage 219.393 kV;
	bustype PQ;
	voltage_A 240.0793-0.6600d kV;
	voltage_B 240.0793-120.6600d kV;
	voltage_C 240.0793+119.3400d kV;
}
object load {
	name bus134;
	phases ABC;
	nominal_voltage 129.904 kV;
	bustype PQ;
	voltage_A 135.9555-17.4078d kV;
	voltage_B 135.9555-137.4078d kV;
	voltage_C 135.9555+102.5922d kV;
	constant_power_A 41.1667+8.8333j MVA;
	constant_power_B 41.1667+8.8333j MVA;
	constant_power_C 41.1667+8.8333j MVA;
}
object load {
	name bus135;
	phases ABC;
	nominal_voltage 129.904 kV;
	bustype PQ;
	voltage_A 137.4922-29.1726d kV;
	voltage_B 137.4922-149.1726d kV;
	voltage_C 137.4922+90.8274d kV;
	constant_power_A 13.0333+3.3667j MVA;
	constant_power_B 13.0333+3.3667j MVA;
	constant_power_C 13.0333+3.3667j MVA;
}
object load {
	name bus136;
	phases ABC;
	nominal_voltage 219.393 kV;
	bustype PQ;
	voltage_A 239.7752-14.4428d kV;
	voltage_B 239.7752-134.4428d kV;
	voltage_C 239.7752+105.5572d kV;
	constant_power_A 1.4667-1.1000j MVA;
	constant_power_B 1.4667-1.1000j MVA;
	constant_power_C 1.4667-1.1000j MVA;
}
object load {
	name bus137;
	phases ABC;
	nominal_voltage 129.904 kV;
	bustype PQ;
	voltage_A 138.5091-13.5937d kV;
	voltage_B 138.5091-133.5937d kV;
	voltage_C 138.5091+106.4063d kV;
	constant_power_A 55.6333+15.5667j MVA;
	constant_power_B 55.6333+15.5667j MVA;
	constant_power_C 55.6333+15.5667j MVA;
}
object node {
	name bus138;
	phases ABC;
	nominal_voltage 219.393 kV;
	bustype PQ;
	voltage_A 238.7632-8.6621d kV;
	voltage_B 238.7632-128.6621d kV;
	voltage_C 238.7632+111.3379d kV;
}
object load {
	name bus140;
	phases ABC;
	nominal_voltage 129.904 kV;
	bustype PQ;
	voltage_A 138.1552-7.7939d kV;
	voltage_B 138.1552-127.7939d kV;
	voltage_C 138.1552+112.2061d kV;
	constant_power_A 67.3333+6.7333j MVA;
	constant_power_B 67.3333+6.7333j MVA;
	constant_power_C 67.3333+6.7333j MVA;
}
object load {
	name bus142;
	phases ABC;
	nominal_voltage 129.904 kV;
	bustype PQ;
	voltage_A 138.1964-21.4009d kV;
	voltage_B 138.1964-141.4009d kV;
	voltage_C 138.1964+98.5991d kV;
	constant_power_A 77.1000-6.1000j MVA;
	constant_power_B 77.1000-6.1000j MVA;
	constant_power_C 77.1000-6.1000j MVA;
}
object load {
	name bus143;
	phases ABC;
	nominal_voltage 129.904 kV;
	bustype PQ;
	voltage_A 138.3437-14.3220d kV;
	voltage_B 138.3437-134.3220d kV;
	voltage_C 138.3437+105.6780d kV;
	constant_power_A 16.4333+2.6000j MVA;
	constant_power_B 16.4333+2.6000j MVA;
	constant_power_C 16.4333+2.6000j MVA;
}
object load {
	name bus144;
	phases ABC;
	nominal_voltage 129.904 kV;
	bustype PQ;
	voltage_A 138.3419-14.3218d kV;
	voltage_B 138.3419-134.3218d kV;
	voltage_C 138.3419+105.6782d kV;
	constant_power_A 13.5333+3.4333j MVA;
	constant_power_B 13.5333+3.4333j MVA;
	constant_power_C 13.5333+3.4333j MVA;
}
object load {
	name bus145;
	phases ABC;
	nominal_voltage 129.904 kV;
	bustype PQ;
	voltage_A 138.2604-27.6336d kV;
	voltage_B 138.2604-147.6336d kV;
	voltage_C 138.2604+92.3664d kV;
	constant_power_A 16.6000-2.0667j MVA;
	constant_power_B 16.6000-2.0667j MVA;
	constant_power_C 16.6000-2.0667j MVA;
}
object node {
	name bus146;
	phases ABC;
	nominal_voltage 129.904 kV;
	bustype PQ;
	voltage_A 140.8485-15.6314d kV;
	voltage_B 140.8485-135.6314d kV;
	voltage_C 140.8485+104.3686d kV;
}
object node {
	name bus147;
	phases ABC;
	nominal_voltage 129.904 kV;
	bustype PQ;
	voltage_A 140.8482-15.6314d kV;
	voltage_B 140.8482-135.6314d kV;
	voltage_C 140.8482+104.3686d kV;
}
object load {
	name bus148;
	phases ABC;
	nominal_voltage 129.904 kV;
	bustype PQ;
	voltage_A 134.7153-21.6795d kV;
	voltage_B 134.7153-141.6795d kV;
	voltage_C 134.7153+98.3205d kV;
	constant_power_A 22.9000+1.5000j MVA;
	constant_power_B 22.9000+1.5000j MVA;
	constant_power_C 22.9000+1.5000j MVA;
}
object load {
	name bus149;
	phases ABC;
	nominal_voltage 129.904 kV;
	bustype PQ;
	voltage_A 139.0146-22.6530d kV;
	voltage_B 139.0146-142.6530d kV;
	voltage_C 139.0146+97.3470d kV;
	constant_power_A 10.0000-0.5000j MVA;
	constant_power_B 10.0000-0.5000j MVA;
	constant_power_C 10.0000-0.5000j MVA;
}
object load {
	name bus150;
	phases ABC;
	nominal_voltage 129.904 kV;
	bustype PQ;
	voltage_A 137.3237-10.5337d kV;
	voltage_B 137.3237-130.5337d kV;
	voltage_C 137.3237+109.4663d kV;
	constant_power_A 17.4000+1.3000j MVA;
	constant_power_B 17.4000+1.3000j MVA;
	constant_power_C 17.4000+1.3000j MVA;
}
object load {
	name bus151;
	phases ABC;
	nominal_voltage 129.904 kV;
	bustype PQ;
	voltage_A 133.8323-22.9196d kV;
	voltage_B 133.8323-142.9196d kV;
	voltage_C 133.8323+97.0804d kV;
	constant_power_A 13.4000+2.2667j MVA;
	constant_power_B 13.4000+2.2667j MVA;
	constant_power_C 13.4000+2.2667j MVA;
}
object node {
	name bus152;
	phases ABC;
	nominal_voltage 129.904 kV;
	bustype PQ;
	voltage_A 138.6933-18.9938d kV;
	voltage_B 138.6933-138.9938d kV;
	voltage_C 138.6933+101.0062d kV;
}
object node {
	name bus153;
	phases ABC;
	nominal_voltage 129.904 kV;
	bustype PQ;
	voltage_A 138.6785-19.0038d kV;
	voltage_B 138.6785-139.0038d kV;
	voltage_C 138.6785+100.9962d kV;
}
object node {
	name bus154;
	phases ABC;
	nominal_voltage 129.904 kV;
	bustype PQ;
	voltage_A 138.7728-13.7799d kV;
	voltage_B 138.7728-133.7799d kV;
	voltage_C 138.7728+106.2201d kV;
}
object node {
	name bus155;
	phases ABC;
	nominal_voltage 219.393 kV;
	bustype PQ;
	voltage_A 234.1627-10.8896d kV;
	voltage_B 234.1627-130.8896d kV;
	voltage_C 234.1627+109.1104d kV;
}
object load {
	name bus156;
	phases ABC;
	nominal_voltage 129.904 kV;
	bustype PQ;
	voltage_A 139.1621-6.9728d kV;
	voltage_B 139.1621-126.9728d kV;
	voltage_C 139.1621+113.0272d kV;
	constant_power_A 55.3000+12.7333j MVA;
	constant_power_B 55.3000+12.7333j MVA;
	constant_power_C 55.3000+12.7333j MVA;
}
object node {
	name bus157;
	phases ABC;
	nominal_voltage 129.904 kV;
	bustype PQ;
	voltage_A 138.0300-12.6190d kV;
	voltage_B 138.0300-132.6190d kV;
	voltage_C 138.0300+107.3810d kV;
}
object node {
	name bus158;
	phases ABC;
	nominal_voltage 219.393 kV;
	bustype PQ;
	voltage_A 232.9117-12.5220d kV;
	voltage_B 232.9117-132.5220d kV;
	voltage_C 232.9117+107.4780d kV;
}
object load {
	name bus159;
	phases ABC;
	nominal_voltage 129.904 kV;
	bustype PQ;
	voltage_A 138.9083-20.6090d kV;
	voltage_B 138.9083-140.6090d kV;
	voltage_C 138.9083+99.3910d kV;
	constant_power_A 12.3667-0.0333j MVA;
	constant_power_B 12.3667-0.0333j MVA;
	constant_power_C 12.3667-0.0333j MVA;
}
object load {
	name bus160;
	phases ABC;
	nominal_voltage 129.904 kV;
	bustype PQ;
	voltage_A 136.5833-20.1476d kV;
	voltage_B 136.5833-140.1476d kV;
	voltage_C 136.5833+99.8524d kV;
	constant_power_A 5.9667+4.8667j MVA;
	constant_power_B 5.9667+4.8667j MVA;
	constant_power_C 5.9667+4.8667j MVA;
}
object node {
	name bus161;
	phases ABC;
	nominal_voltage 129.904 kV;
	bustype PQ;
	voltage_A 138.2081-47.4454d kV;
	voltage_B 138.2081-167.4454d kV;
	voltage_C 138.2081+72.5546d kV;
}
object node {
	name bus162;
	phases ABC;
	nominal_voltage 129.904 kV;
	bustype PQ;
	voltage_A 138.2081-47.4454d kV;
	voltage_B 138.2081-167.4454d kV;
	voltage_C 138.2081+72.5546d kV;
}
object node {
	name bus163;
	phases ABC;
	nominal_voltage 129.904 kV;
	bustype PQ;
	voltage_A 138.2090-47.4456d kV;
	voltage_B 138.2090-167.4456d kV;
	voltage_C 138.2090+72.5544d kV;
}
object load {
	name bus164;
	phases ABC;
	nominal_voltage 129.904 kV;
	bustype PQ;
	voltage_A 138.2079-47.4453d kV;
	voltage_B 138.2079-167.4453d kV;
	voltage_C 138.2079+72.5547d kV;
	constant_power_A 32.3000-2.4667j MVA;
	constant_power_B 32.3000-2.4667j MVA;
	constant_power_C 32.3000-2.4667j MVA;
}
object node {
	name bus165;
	phases ABC;
	nominal_voltage 129.904 kV;
	bustype PQ;
	voltage_A 136.3076-14.6825d kV;
	voltage_B 136.3076-134.6825d kV;
	voltage_C 136.3076+105.3175d kV;
}
object load {
	name bus166;
	phases ABC;
	nominal_voltage 129.904 kV;
	bustype PQ;
	voltage_A 137.1473-18.0294d kV;
	voltage_B 137.1473-138.0294d kV;
	voltage_C 137.1473+101.9706d kV;
	constant_power_A 2.8333-1.7333j MVA;
	constant_power_B 2.8333-1.7333j MVA;
	constant_power_C 2.8333-1.7333j MVA;
}
object node {
	name bus167;
	phases ABC;
	nominal_voltage 129.904 kV;
	bustype PQ;
	voltage_A 140.3002-15.5273d kV;
	voltage_B 140.3002-135.5273d kV;
	voltage_C 140.3002+104.4727d kV;
}
object node {
	name bus168;
	phases ABC;
	nominal_voltage 219.393 kV;
	bustype PQ;
	voltage_A 241.9360-13.6224d kV;
	voltage_B 241.9360-133.6224d kV;
	voltage_C 241.9360+106.3776d kV;
}
object node {
	name bus169;
	phases ABC;
	nominal_voltage 129.904 kV;
	bustype PQ;
	voltage_A 138.3476-10.5302d kV;
	voltage_B 138.3476-130.5302d kV;
	voltage_C 138.3476+109.4698d kV;
}
object load {
	name bus170;
	phases ABC;
	nominal_voltage 86.603 kV;
	bustype PQ;
	voltage_A 92.1267-14.2934d kV;
	voltage_B 92.1267-134.2934d kV;
	voltage_C 92.1267+105.7066d kV;
	constant_power_A 4.3333+1.3333j MVA;
	constant_power_B 4.3333+1.3333j MVA;
	constant_power_C 4.3333+1.3333j MVA;
}
object load {
	name bus171;
	phases ABC;
	nominal_voltage 129.904 kV;
	bustype PQ;
	voltage_A 136.1079-26.3346d kV;
	voltage_B 136.1079-146.3346d kV;
	voltage_C 136.1079+93.6654d kV;
	constant_power_A 16.8000+1.5000j MVA;
	constant_power_B 16.8000+1.5000j MVA;
	constant_power_C 16.8000+1.5000j MVA;
}
object load {
	name bus172;
	phases ABC;
	nominal_voltage 129.904 kV;
	bustype PQ;
	voltage_A 136.1503-26.2519d kV;
	voltage_B 136.1503-146.2519d kV;
	voltage_C 136.1503+93.7481d kV;
	constant_power_A 0.1333+0.2000j MVA;
	constant_power_B 0.1333+0.2000j MVA;
	constant_power_C 0.1333+0.2000j MVA;
}
object load {
	name bus173;
	phases ABC;
	nominal_voltage 129.904 kV;
	bustype PQ;
	voltage_A 139.6607-7.6140d kV;
	voltage_B 139.6607-127.6140d kV;
	voltage_C 139.6607+112.3860d kV;
	constant_power_A 9.7000-2.6333j MVA;
	constant_power_B 9.7000-2.6333j MVA;
	constant_power_C 9.7000-2.6333j MVA;
}
object node {
	name bus175;
	phases ABC;
	nominal_voltage 129.904 kV;
	bustype PQ;
	voltage_A 141.6831-15.1361d kV;
	voltage_B 141.6831-135.1361d kV;
	voltage_C 141.6831+104.8639d kV;
}
object node {
	name bus176;
	phases ABC;
	nominal_voltage 129.904 kV;
	bustype PQ;
	voltage_A 141.6811-15.1402d kV;
	voltage_B 141.6811-135.1402d kV;
	voltage_C 141.6811+104.8598d kV;
}
object node {
	name bus177;
	phases ABC;
	nominal_voltage 129.904 kV;
	bustype PQ;
	voltage_A 141.6809-15.1414d kV;
	voltage_B 141.6809-135.1414d kV;
	voltage_C 141.6809+104.8586d kV;
}
object node {
	name bus178;
	phases ABC;
	nominal_voltage 129.904 kV;
	bustype PQ;
	voltage_A 141.6809-15.1416d kV;
	voltage_B 141.6809-135.1416d kV;
	voltage_C 141.6809+104.8584d kV;
}
object node {
	name bus179;
	phases ABC;
	nominal_voltage 129.904 kV;
	bustype PQ;
	voltage_A 141.6829-15.1364d kV;
	voltage_B 141.6829-135.1364d kV;
	voltage_C 141.6829+104.8636d kV;
}
object node {
	name bus180;
	phases ABC;
	nominal_voltage 219.393 kV;
	bustype PQ;
	voltage_A 242.6488-12.5833d kV;
	voltage_B 242.6488-132.5833d kV;
	voltage_C 242.6488+107.4167d kV;
}
object load {
	name bus181;
	phases ABC;
	nominal_voltage 129.904 kV;
	bustype PQ;
	voltage_A 133.8598-22.8864d kV;
	voltage_B 133.8598-142.8864d kV;
	voltage_C 133.8598+97.1136d kV;
	constant_power_A 60.5000+13.3000j MVA;
	constant_power_B 60.5000+13.3000j MVA;
	constant_power_C 60.5000+13.3000j MVA;
}
object load {
	name bus182;
	phases ABC;
	nominal_voltage 129.904 kV;
	bustype PQ;
	voltage_A 134.2610-7.5393d kV;
	voltage_B 134.2610-127.5393d kV;
	voltage_C 134.2610+112.4607d kV;
	constant_power_A 10.6667+7.1333j MVA;
	constant_power_B 10.6667+7.1333j MVA;
	constant_power_C 10.6667+7.1333j MVA;
}
object node {
	name bus183;
	phases ABC;
	nominal_voltage 219.393 kV;
	bustype PQ;
	voltage_A 242.3730-6.9650d kV;
	voltage_B 242.3730-126.9650d kV;
	voltage_C 242.3730+113.0350d kV;
}
object node {
	name bus184;
	phases ABC;
	nominal_voltage 219.393 kV;
	bustype PQ;
	voltage_A 242.3829-6.8677d kV;
	voltage_B 242.3829-126.8677d kV;
	voltage_C 242.3829+113.1323d kV;
}
object node {
	name bus185;
	phases ABC;
	nominal_voltage 219.393 kV;
	bustype PQ;
	voltage_A 242.3813-6.8712d kV;
	voltage_B 242.3813-126.8712d kV;
	voltage_C 242.3813+113.1288d kV;
}
object node {
	name bus186;
	phases ABC;
	nominal_voltage 219.393 kV;
	bustype PQ;
	voltage_A 242.3604-6.9748d kV;
	voltage_B 242.3604-126.9748d kV;
	voltage_C 242.3604+113.0252d kV;
}
object load {
	name bus187;
	phases ABC;
	nominal_voltage 129.904 kV;
	bustype PQ;
	voltage_A 136.0428-14.2701d kV;
	voltage_B 136.0428-134.2701d kV;
	voltage_C 136.0428+105.7299d kV;
	constant_power_A 21.9667+7.7667j MVA;
	constant_power_B 21.9667+7.7667j MVA;
	constant_power_C 21.9667+7.7667j MVA;
}
object load {
	name bus188;
	phases ABC;
	nominal_voltage 129.904 kV;
	bustype PQ;
	voltage_A 132.2484-15.7309d kV;
	voltage_B 132.2484-135.7309d kV;
	voltage_C 132.2484+104.2691d kV;
	constant_power_A 1.8000+0.4667j MVA;
	constant_power_B 1.8000+0.4667j MVA;
	constant_power_C 1.8000+0.4667j MVA;
}
object load {
	name bus189;
	phases ABC;
	nominal_voltage 129.904 kV;
	bustype PQ;
	voltage_A 137.8733-37.4718d kV;
	voltage_B 137.8733-157.4718d kV;
	voltage_C 137.8733+82.5282d kV;
	constant_power_A 33.9000-1.4333j MVA;
	constant_power_B 33.9000-1.4333j MVA;
	constant_power_C 33.9000-1.4333j MVA;
}
object load {
	name bus190;
	phases ABC;
	nominal_voltage 219.393 kV;
	bustype PQ;
	voltage_A 241.7369-9.2708d kV;
	voltage_B 241.7369-129.2708d kV;
	voltage_C 241.7369+110.7292d kV;
	constant_power_A -2.2667-0.0667j MVA;
	constant_power_B -2.2667-0.0667j MVA;
	constant_power_C -2.2667-0.0667j MVA;
}
object load {
	name bus191;
	phases ABC;
	nominal_voltage 219.393 kV;
	bustype PQ;
	voltage_A 241.7355-9.2878d kV;
	voltage_B 241.7355-129.2878d kV;
	voltage_C 241.7355+110.7122d kV;
	constant_power_A -1.7667+0.0000j MVA;
	constant_power_B -1.7667+0.0000j MVA;
	constant_power_C -1.7667+0.0000j MVA;
}
object node {
	name bus192;
	phases ABC;
	nominal_voltage 129.904 kV;
	bustype PQ;
	voltage_A 135.6948-26.9909d kV;
	voltage_B 135.6948-146.9909d kV;
	voltage_C 135.6948+93.0091d kV;
}
object node {
	name bus193;
	phases ABC;
	nominal_voltage 129.904 kV;
	bustype PQ;
	voltage_A 137.2842-11.7045d kV;
	voltage_B 137.2842-131.7045d kV;
	voltage_C 137.2842+108.2955d kV;
}
object node {
	name bus194;
	phases ABC;
	nominal_voltage 129.904 kV;
	bustype PQ;
	voltage_A 137.2842-11.7045d kV;
	voltage_B 137.2842-131.7045d kV;
	voltage_C 137.2842+108.2955d kV;
}
object load {
	name bus195;
	phases ABC;
	nominal_voltage 129.904 kV;
	bustype PQ;
	voltage_A 135.6788-18.3455d kV;
	voltage_B 135.6788-138.3455d kV;
	voltage_C 135.6788+101.6545d kV;
	constant_power_A 45.1667+6.4000j MVA;
	constant_power_B 45.1667+6.4000j MVA;
	constant_power_C 45.1667+6.4000j MVA;
}
object node {
	name bus196;
	phases ABC;
	nominal_voltage 129.904 kV;
	bustype PQ;
	voltage_A 136.3281-8.4785d kV;
	voltage_B 136.3281-128.4785d kV;
	voltage_C 136.3281+111.5215d kV;
}
object node {
	name bus197;
	phases ABC;
	nominal_voltage 129.904 kV;
	bustype PQ;
	voltage_A 136.1884-8.8420d kV;
	voltage_B 136.1884-128.8420d kV;
	voltage_C 136.1884+111.1580d kV;
}
object load {
	name bus198;
	phases ABC;
	nominal_voltage 129.904 kV;
	bustype PQ;
	voltage_A 137.2507-34.7828d kV;
	voltage_B 137.2507-154.7828d kV;
	voltage_C 137.2507+85.2172d kV;
	constant_power_A 32.9667+8.8333j MVA;
	constant_power_B 32.9667+8.8333j MVA;
	constant_power_C 32.9667+8.8333j MVA;
}
object load {
	name bus199;
	phases ABC;
	nominal_voltage 129.904 kV;
	bustype PQ;
	voltage_A 138.1065-31.7654d kV;
	voltage_B 138.1065-151.7654d kV;
	voltage_C 138.1065+88.2346d kV;
	constant_power_A 99.7333-8.4000j MVA;
	constant_power_B 99.7333-8.4000j MVA;
	constant_power_C 99.7333-8.4000j MVA;
}
object node {
	name bus200;
	phases ABC;
	nominal_voltage 129.904 kV;
	bustype PQ;
	voltage_A 138.4294-14.4051d kV;
	voltage_B 138.4294-134.4051d kV;
	voltage_C 138.4294+105.5949d kV;
}
object node {
	name bus201;
	phases ABC;
	nominal_voltage 129.904 kV;
	bustype PQ;
	voltage_A 140.6717-20.9372d kV;
	voltage_B 140.6717-140.9372d kV;
	voltage_C 140.6717+99.0628d kV;
}
object load {
	name bus202;
	phases ABC;
	nominal_voltage 129.904 kV;
	bustype PQ;
	voltage_A 135.2582-18.9969d kV;
	voltage_B 135.2582-138.9969d kV;
	voltage_C 135.2582+101.0031d kV;
	constant_power_A 70.4000+10.3333j MVA;
	constant_power_B 70.4000+10.3333j MVA;
	constant_power_C 70.4000+10.3333j MVA;
}
object load {
	name bus203;
	phases ABC;
	nominal_voltage 129.904 kV;
	bustype PQ;
	voltage_A 138.5867-25.4578d kV;
	voltage_B 138.5867-145.4578d kV;
	voltage_C 138.5867+94.5422d kV;
	constant_power_A 29.9000+6.5000j MVA;
	constant_power_B 29.9000+6.5000j MVA;
	constant_power_C 29.9000+6.5000j MVA;
}
object load {
	name bus204;
	phases ABC;
	nominal_voltage 129.904 kV;
	bustype PQ;
	voltage_A 132.3089-15.8861d kV;
	voltage_B 132.3089-135.8861d kV;
	voltage_C 132.3089+104.1139d kV;
	constant_power_A 30.7333+8.6667j MVA;
	constant_power_B 30.7333+8.6667j MVA;
	constant_power_C 30.7333+8.6667j MVA;
}
object load {
	name bus205;
	phases ABC;
	nominal_voltage 129.904 kV;
	bustype PQ;
	voltage_A 136.9343-28.4878d kV;
	voltage_B 136.9343-148.4878d kV;
	voltage_C 136.9343+91.5122d kV;
	constant_power_A 9.8667+0.9000j MVA;
	constant_power_B 9.8667+0.9000j MVA;
	constant_power_C 9.8667+0.9000j MVA;
}
object node {
	name bus206;
	phases ABC;
	nominal_voltage 219.393 kV;
	bustype PQ;
	voltage_A 231.2305-25.9420d kV;
	voltage_B 231.2305-145.9420d kV;
	voltage_C 231.2305+94.0580d kV;
}
object load {
	name bus207;
	phases ABC;
	nominal_voltage 129.904 kV;
	bustype PQ;
	voltage_A 138.5547-25.7727d kV;
	voltage_B 138.5547-145.7727d kV;
	voltage_C 138.5547+94.2273d kV;
	constant_power_A 42.3333+13.5000j MVA;
	constant_power_B 42.3333+13.5000j MVA;
	constant_power_C 42.3333+13.5000j MVA;
}
object node {
	name bus1829;
	phases ABC;
	nominal_voltage 129.904 kV;
	bustype PQ;
	voltage_A 136.9186-14.5312d kV;
	voltage_B 136.9186-134.5312d kV;
	voltage_C 136.9186+105.4688d kV;
}
object node {
	name bus208;
	phases ABC;
	nominal_voltage 129.904 kV;
	bustype PQ;
	voltage_A 136.9170-14.5313d kV;
	voltage_B 136.9170-134.5313d kV;
	voltage_C 136.9170+105.4687d kV;
}
object load {
	name bus209;
	phases ABC;
	nominal_voltage 129.904 kV;
	bustype PQ;
	voltage_A 138.4237-35.7529d kV;
	voltage_B 138.4237-155.7529d kV;
	voltage_C 138.4237+84.2471d kV;
	constant_power_A 103.4000+21.5000j MVA;
	constant_power_B 103.4000+21.5000j MVA;
	constant_power_C 103.4000+21.5000j MVA;
	constant_impedance_A 0.0000-632.8125j Ohm;
	constant_impedance_B 0.0000-632.8125j Ohm;
	constant_impedance_C 0.0000-632.8125j Ohm;
}
object load {
	name bus210;
	phases ABC;
	nominal_voltage 129.904 kV;
	bustype PQ;
	voltage_A 139.6331-3.0066d kV;
	voltage_B 139.6331-123.0066d kV;
	voltage_C 139.6331+116.9934d kV;
	constant_power_A 20.7000+5.6000j MVA;
	constant_power_B 20.7000+5.6000j MVA;
	constant_power_C 20.7000+5.6000j MVA;
}
object load {
	name bus211;
	phases ABC;
	nominal_voltage 129.904 kV;
	bustype PQ;
	voltage_A 138.2981-18.2145d kV;
	voltage_B 138.2981-138.2145d kV;
	voltage_C 138.2981+101.7855d kV;
	constant_power_A 30.6333+4.0333j MVA;
	constant_power_B 30.6333+4.0333j MVA;
	constant_power_C 30.6333+4.0333j MVA;
}
object load {
	name bus212;
	phases ABC;
	nominal_voltage 129.904 kV;
	bustype PQ;
	voltage_A 138.4906-17.6945d kV;
	voltage_B 138.4906-137.6945d kV;
	voltage_C 138.4906+102.3055d kV;
	constant_power_A 8.9333-0.3000j MVA;
	constant_power_B 8.9333-0.3000j MVA;
	constant_power_C 8.9333-0.3000j MVA;
}
object load {
	name bus213;
	phases ABC;
	nominal_voltage 129.904 kV;
	bustype PQ;
	voltage_A 135.7591-9.8411d kV;
	voltage_B 135.7591-129.8411d kV;
	voltage_C 135.7591+110.1589d kV;
	constant_power_A 44.3333+5.6333j MVA;
	constant_power_B 44.3333+5.6333j MVA;
	constant_power_C 44.3333+5.6333j MVA;
}
object node {
	name bus215;
	phases ABC;
	nominal_voltage 219.393 kV;
	bustype PQ;
	voltage_A 241.5979-3.3935d kV;
	voltage_B 241.5979-123.3935d kV;
	voltage_C 241.5979+116.6065d kV;
}
object load {
	name bus216;
	phases ABC;
	nominal_voltage 219.393 kV;
	bustype PQ;
	voltage_A 236.1678-11.8569d kV;
	voltage_B 236.1678-131.8569d kV;
	voltage_C 236.1678+108.1431d kV;
	constant_power_A 31.7000+5.4333j MVA;
	constant_power_B 31.7000+5.4333j MVA;
	constant_power_C 31.7000+5.4333j MVA;
}
object node {
	name bus217;
	phases ABC;
	nominal_voltage 129.904 kV;
	bustype PQ;
	voltage_A 136.0594-9.1621d kV;
	voltage_B 136.0594-129.1621d kV;
	voltage_C 136.0594+110.8379d kV;
}
object node {
	name bus218;
	phases ABC;
	nominal_voltage 129.904 kV;
	bustype PQ;
	voltage_A 135.9283-9.4195d kV;
	voltage_B 135.9283-129.4195d kV;
	voltage_C 135.9283+110.5805d kV;
}
object load {
	name bus219;
	phases ABC;
	nominal_voltage 129.904 kV;
	bustype PQ;
	voltage_A 140.2104-15.7555d kV;
	voltage_B 140.2104-135.7555d kV;
	voltage_C 140.2104+104.2445d kV;
	constant_power_A 11.4667+3.3667j MVA;
	constant_power_B 11.4667+3.3667j MVA;
	constant_power_C 11.4667+3.3667j MVA;
}
object load {
	name bus220;
	phases ABC;
	nominal_voltage 129.904 kV;
	bustype PQ;
	voltage_A 140.2366-15.7257d kV;
	voltage_B 140.2366-135.7257d kV;
	voltage_C 140.2366+104.2743d kV;
	constant_power_A 0.7333+1.1667j MVA;
	constant_power_B 0.7333+1.1667j MVA;
	constant_power_C 0.7333+1.1667j MVA;
}
object load {
	name bus221;
	phases ABC;
	nominal_voltage 129.904 kV;
	bustype PQ;
	voltage_A 138.7765-16.6239d kV;
	voltage_B 138.7765-136.6239d kV;
	voltage_C 138.7765+103.3761d kV;
	constant_power_A -2.5000-2.4333j MVA;
	constant_power_B -2.5000-2.4333j MVA;
	constant_power_C -2.5000-2.4333j MVA;
}
object load {
	name bus222;
	phases ABC;
	nominal_voltage 129.904 kV;
	bustype PQ;
	voltage_A 138.2211-26.1007d kV;
	voltage_B 138.2211-146.1007d kV;
	voltage_C 138.2211+93.8993d kV;
	constant_power_A 28.4000+5.7000j MVA;
	constant_power_B 28.4000+5.7000j MVA;
	constant_power_C 28.4000+5.7000j MVA;
}
object load {
	name bus223;
	phases ABC;
	nominal_voltage 129.904 kV;
	bustype PQ;
	voltage_A 138.3131-18.1605d kV;
	voltage_B 138.3131-138.1605d kV;
	voltage_C 138.3131+101.8395d kV;
	constant_power_A 12.7000+0.4000j MVA;
	constant_power_B 12.7000+0.4000j MVA;
	constant_power_C 12.7000+0.4000j MVA;
}
object load {
	name bus224;
	phases ABC;
	nominal_voltage 129.904 kV;
	bustype PQ;
	voltage_A 138.3770-18.1178d kV;
	voltage_B 138.3770-138.1178d kV;
	voltage_C 138.3770+101.8822d kV;
	constant_power_A 7.1333-0.7000j MVA;
	constant_power_B 7.1333-0.7000j MVA;
	constant_power_C 7.1333-0.7000j MVA;
}
object load {
	name bus225;
	phases ABC;
	nominal_voltage 86.603 kV;
	bustype PQ;
	voltage_A 92.1540-13.6645d kV;
	voltage_B 92.1540-133.6645d kV;
	voltage_C 92.1540+106.3355d kV;
	constant_power_A 2.3333+1.2333j MVA;
	constant_power_B 2.3333+1.2333j MVA;
	constant_power_C 2.3333+1.2333j MVA;
}
object node {
	name bus1830;
	phases ABC;
	nominal_voltage 129.904 kV;
	bustype PQ;
	voltage_A 138.0409-45.1509d kV;
	voltage_B 138.0409-165.1509d kV;
	voltage_C 138.0409+74.8491d kV;
}
object node {
	name bus226;
	phases ABC;
	nominal_voltage 219.393 kV;
	bustype PQ;
	voltage_A 234.6504-40.3992d kV;
	voltage_B 234.6504-160.3992d kV;
	voltage_C 234.6504+79.6008d kV;
}
object load {
	name bus227;
	phases ABC;
	nominal_voltage 129.904 kV;
	bustype PQ;
	voltage_A 136.5909-20.8369d kV;
	voltage_B 136.5909-140.8369d kV;
	voltage_C 136.5909+99.1631d kV;
	constant_power_A 60.1333-0.6667j MVA;
	constant_power_B 60.1333-0.6667j MVA;
	constant_power_C 60.1333-0.6667j MVA;
}
object node {
	name bus228;
	phases ABC;
	nominal_voltage 219.393 kV;
	bustype PQ;
	voltage_A 230.9206-18.3701d kV;
	voltage_B 230.9206-138.3701d kV;
	voltage_C 230.9206+101.6299d kV;
}
object load {
	name bus229;
	phases ABC;
	nominal_voltage 129.904 kV;
	bustype PQ;
	voltage_A 137.3394-13.7473d kV;
	voltage_B 137.3394-133.7473d kV;
	voltage_C 137.3394+106.2527d kV;
	constant_power_A 42.3667+10.3333j MVA;
	constant_power_B 42.3667+10.3333j MVA;
	constant_power_C 42.3667+10.3333j MVA;
}
object node {
	name bus230;
	phases ABC;
	nominal_voltage 219.393 kV;
	bustype PQ;
	voltage_A 237.5759-6.2783d kV;
	voltage_B 237.5759-126.2783d kV;
	voltage_C 237.5759+113.7217d kV;
}
object load {
	name bus231;
	phases ABC;
	nominal_voltage 129.904 kV;
	bustype PQ;
	voltage_A 138.1082-29.5131d kV;
	voltage_B 138.1082-149.5131d kV;
	voltage_C 138.1082+90.4869d kV;
	constant_power_A 14.8000+4.4000j MVA;
	constant_power_B 14.8000+4.4000j MVA;
	constant_power_C 14.8000+4.4000j MVA;
}
object load {
	name bus232;
	phases ABC;
	nominal_voltage 129.904 kV;
	bustype PQ;
	voltage_A 132.8291-27.6896d kV;
	voltage_B 132.8291-147.6896d kV;
	voltage_C 132.8291+92.3104d kV;
	constant_power_A 16.3333+3.7000j MVA;
	constant_power_B 16.3333+3.7000j MVA;
	constant_power_C 16.3333+3.7000j MVA;
}
object load {
	name bus233;
	phases ABC;
	nominal_voltage 129.904 kV;
	bustype PQ;
	voltage_A 139.2601-20.1321d kV;
	voltage_B 139.2601-140.1321d kV;
	voltage_C 139.2601+99.8679d kV;
	constant_power_A 7.9333+0.1333j MVA;
	constant_power_B 7.9333+0.1333j MVA;
	constant_power_C 7.9333+0.1333j MVA;
}
object load {
	name bus234;
	phases ABC;
	nominal_voltage 129.904 kV;
	bustype PQ;
	voltage_A 139.2858-20.0597d kV;
	voltage_B 139.2858-140.0597d kV;
	voltage_C 139.2858+99.9403d kV;
	constant_power_A 0.1333+0.1667j MVA;
	constant_power_B 0.1333+0.1667j MVA;
	constant_power_C 0.1333+0.1667j MVA;
}
object load {
	name bus235;
	phases ABC;
	nominal_voltage 129.904 kV;
	bustype PQ;
	voltage_A 139.7834-27.7651d kV;
	voltage_B 139.7834-147.7651d kV;
	voltage_C 139.7834+92.2349d kV;
	constant_power_A 1.3333+0.3333j MVA;
	constant_power_B 1.3333+0.3333j MVA;
	constant_power_C 1.3333+0.3333j MVA;
}
object load {
	name bus236;
	phases ABC;
	nominal_voltage 129.904 kV;
	bustype PQ;
	voltage_A 139.6691-27.8001d kV;
	voltage_B 139.6691-147.8001d kV;
	voltage_C 139.6691+92.1999d kV;
	constant_power_A 10.1333+7.8333j MVA;
	constant_power_B 10.1333+7.8333j MVA;
	constant_power_C 10.1333+7.8333j MVA;
}
object load {
	name bus237;
	phases ABC;
	nominal_voltage 129.904 kV;
	bustype PQ;
	voltage_A 134.4257-24.9510d kV;
	voltage_B 134.4257-144.9510d kV;
...